code_generation/attribute_classes/input.json
{
    "name": "input",
    "include_guard": "INPUT",
    "classes": [
        {
            "name": "BaseInput",
            "attributes": [
                {
                    "data_type": "ID",
                    "names": "id",
                    "description": "ID of the object"
                }
            ]
        },
        {
            "name": "NodeInput",
            "base": "BaseInput",
            "attributes": [
                {
                    "data_type": "double",
                    "names": "u_rated",
                    "description": "Rated line-line voltage"
                }
            ]
        },
        {
            "name": "BranchInput",
            "base": "BaseInput",
            "attributes": [
                {
                    "data_type": "ID",
                    "names": ["from_node", "to_node"],
                    "description": "Node IDs to which this branch is connected at both sides"
                },
                {
                    "data_type": "IntS",
                    "names": ["from_status", "to_status"],
                    "description": "If the branch is connected at each side"
                }
            ]
        },
        {
            "name": "Branch3Input",
            "base": "BaseInput",
            "attributes": [
                {
                    "data_type": "ID",
                    "names": ["node_1", "node_2", "node_3"],
                    "description": "Node IDs to which this branch3 is connected at three sides"
                },
                {
                    "data_type": "IntS",
                    "names": ["status_1", "status_2", "status_3"],
                    "description": "If the branch is connected at each side"
                }
            ]
        },
        {
            "name": "ApplianceInput",
            "base": "BaseInput",
            "attributes": [
                {
                    "data_type": "ID",
                    "names": "node",
                    "description": "Node ID to which this appliance is connected"
                },
                {
                    "data_type": "IntS",
                    "names": "status",
                    "description": "If the appliance is connected"
                }
            ]
        },
        {
            "name": "LineInput",
            "base": "BranchInput",
            "attributes": [
                {
                    "data_type": "double",
                    "names": ["r1", "x1", "c1", "tan1"],
                    "description": "positive sequence parameters"
                },
                {
                    "data_type": "double",
                    "names": ["r0", "x0", "c0", "tan0"],
                    "description": "negative sequence parameters"
                },
                {
                    "data_type": "double",
                    "names": "i_n",
                    "description": "rated current"
                }
            ]
        },
        {
            "name": "GenericLoadGenInput",
            "base": "ApplianceInput",
            "attributes": [
                {
                    "data_type": "LoadGenType",
                    "names": "type",
                    "description": "Type of the load_gen"
                }
            ]
        },
        {
            "name": "LoadGenInput",
            "base": "GenericLoadGenInput",
            "is_template": true,
            "attributes": [
                {
                    "data_type": "RealValue<sym>",
                    "names": ["p_specified", "q_specified"],
                    "description": "Specified active/reactive power"
                }
            ]
        }
    ]
}